data/case13659pegase_modified.m
function mpc = case13659pegase_modified
%   SALT variant of case13659pegase, generated by build_timing_cases.m:
%     - 5713 transformer ratios set to 1 (as consistent with ParaEMT,
%       NREL's open-source EMT simulator, which reads the tap ratio
%       from the power flow but never uses it - its transformers are
%       stamped as a plain series R-L; see lib_numba.py "R-L model
%       xfmr", where xfmr_k is stored and never consumed. M. Xiong et
%       al., IEEE Trans. Power Del., vol. 39, no. 2, 2024), 74 phase
%       shifts set to 0
%     - 14754 branches reclassified from PI line to series R-L (their own
%       data has no resistance, no charging, or capacitive reactance,
%       so a PI line cannot describe them); impedances unchanged
%     - 0 line ratings set to 9999 MVA, standing in for MATPOWER's
%       "0 = unlimited" (not a real thermal limit)
%     - 0 generators dropped (offline or zero injection), 0 lumped
%       onto shared buses, 0 buses demoted PV -> PQ
%     - the case below is RE-SOLVED for this modified network in SALT, 
%       which can differ from MATPOWER file as-shipped for two reasons: the
%       source case is not itself a solved snapshot, and setting the tap
%       ratios to 1 moves the operating point again. Impedances,
%       loads, limits, shunts, bus types and areas are unchanged.
%
%CASE13659PEGASE_MODIFIED

%% MATPOWER Case Format : Version 2
mpc.version = '2';

%%-----  Power Flow Data  -----%%
%% system MVA base
mpc.baseMVA = 100;

%% bus data
%	bus_i	type	Pd	Qd	Gs	Bs	area	Vm	Va	baseKV	zone	Vmax	Vmin
mpc.bus = [
	1	3	0	0	0	0	0	1.031695	0	20	6	1.1	0.9;
	2	1	72.68	45	0	6.61	0	0.939192529	-38.7928957	150	9	1.1	0.9;
	3	1	378.4	98.5	0	16.61	0	0.985154108	-34.6270701	220	6	1.1	0.9;
	4	1	134	19.1	0	0.08	0	0.972488769	-17.0727774	154	1	1.1	0.9;
	5	1	151	48.8	0	4.69	0	0.962279857	-19.7407163	220	5	1.1	0.9;
	6	1	171.41	23.4	0	2.1	0	0.987291631	-4.00244389	220	5	1.1	0.9;
	7	1	45.95	14	0	13.34	0	0.972170491	-47.5937095	220	6	1.1	0.9;
	8	1	343.4	53.1	0.70508	36.832433	0	1.01223453	-40.01864	380	6	1.1	0.9;
	9	1	-0	-0	0	75.076713	0	0.988964441	-12.5123763	380	5	1.1	0.9;
	10	1	31.03	10.3	0	0.65	0	0.926122469	-40.5982996	110	21	1.1	0.9;
	11	1	0	-0	0	3.41	0	1.02754756	-25.520635	154	1	1.1	0.9;
	12	2	0	0	0	0	0	1.004054	76.9663344	20	3	1.1	0.9;
	13	1	14.3	2	0	1.91	0	0.980773122	-7.90425987	154	1	1.1	0.9;
	14	1	134	24.7	0	12.44	0	0.941657345	-22.9770629	220	5	1.1	0.9;
	15	1	0	0	0	0	0	0.923017864	-39.2410702	150	9	1.1	0.9;
	16	1	-6.11	2	0	0.47	0	0.989851023	-34.1513084	150	9	1.1	0.9;
	17	1	-22.74	-8.32	0	6.5	0	1.00258105	-46.7568609	220	6	1.1	0.9;
	18	2	0	0	0	0	0	1.043087	-15.0969528	20	14	1.1	0.9;
	19	1	59.67	26.7	0	12.84	0	1.01721327	-47.3162515	220	4	1.1	0.9;
	20	1	30.6	4.3	0	5.15	0	0.960941054	2.21972763	154	1	1.1	0.9;
	21	1	0	-0	0.234457	-0.195381	0	1.01209389	-39.1741037	380	6	1.1	0.9;
	22	1	67.67	12.1	0	2.18	0	0.983208613	10.2904816	220	3	1.1	0.9;
	23	1	0	0	0.295874	20.603438	0	1.01024771	22.4235952	380	3	1.1	0.9;
	24	1	25.33	7.5	0	2.39	0	0.945452648	-40.2406224	110	12	1.1	0.9;
	25	1	1.4	0.2	0	4.93	0	0.99495702	2.61123599	154	1	1.1	0.9;
	26	1	161.2	39.3	0	30.71	0	0.948854491	-20.3720364	220	5	1.1	0.9;
	27	1	0	-0	0	0.85	0	0.965412294	-16.4905164	220	5	1.1	0.9;
	28	1	19.62	7.1	0	1.15	0	0.959956662	-31.6256407	110	19	1.1	0.9;
	29	2	0	0	0	0	0	1.033319	-25.5737321	20	18	1.1	0.9;
	30	1	31.94	8.8	0	0.73	0	0.989796052	-31.4923087	110	22	1.1	0.9;
	31	1	0	-0	0.235277	0.313936	0	1.01251543	16.6866148	220	3	1.1	0.9;
	32	1	167.3	54.8	0	110.54	0	1.01379404	0.117214564	380	5	1.1	0.9;
	33	2	0	0	0	0	0	1.018631	-37.5749462	20	4	1.1	0.9;
	34	1	-0	0	0	14.82	0	1.02336879	16.728055	380	13	1.1	0.9;
	35	1	0	0	0	0	0	0.910914728	-39.511597	150	9	1.1	0.9;
	36	1	152.9	49.4	0	27.65	0	0.997974849	-10.9839913	380	5	1.1	0.9;
	37	1	-0	0	0	0.56	0	0.942858267	-37.5175339	150	9	1.1	0.9;
	38	1	69.68	43.2	0	6.3	0	0.836337061	-42.0524508	150	9	1.1	0.9;
	39	2	0	0	0	0	0	1.073284	-27.4568271	20	9	1.1	0.9;
	40	1	0	-0	0	37.54	0	0.99752157	-41.1210565	220	4	1.1	0.9;
	41	1	0	-0	0	0.25	0	1.02115784	-36.7638067	220	4	1.1	0.9;
	42	2	0	0	0	0	0	0.985213	-1.10265894	11	1	1.1	0.9;
	43	1	13.51	4.9	0	1.8	0	0.993967204	-30.0178163	110	19	1.1	0.9;
	44	1	10.51	3.5	0	0.31	0	0.952924999	-38.3016594	110	12	1.1	0.9;
	45	2	0	0	0	0	0	1.012099	-45.2361865	20	4	1.1	0.9;
	46	1	-0	0	0.12	15.34	0	1.01110581	-26.014378	220	19	1.1	0.9;
	47	1	9.21	2.6	0	2	0	0.970140693	-33.8244702	110	18	1.1	0.9;
	48	1	42.75	12.8	0	13.3	0	1.04125654	30.4199282	220	8	1.1	0.9;
	49	1	-0	0	0.019959	0.320041	0	1.00295715	-36.3830233	150	10	1.1	0.9;
	50	1	16.02	4.54	0	0.1	0	0.961550474	-36.1316074	110	23	1.1	0.9;
	51	2	0	0	0	0	0	1.011416	14.5433058	14.4	1	1.1	0.9;
	52	1	27.9	4	0	4.23	0	0.982375228	-13.5699655	154	1	1.1	0.9;
	53	1	20.82	7.9	0	26.89	0	1.00859123	-47.820575	380	4	1.1	0.9;
	54	2	0	0	0	0	0	1.021005	-2.60808722	20	14	1.1	0.9;
	55	1	0	0	0	7.27	0	0.951240939	-20.4382659	220	5	1.1	0.9;
	56	1	10.11	3.7	0	0.81	0	0.995476145	-30.3861991	110	19	1.1	0.9;
	57	1	10.01	2.7	0	1.14	0	0.952595331	-33.7913819	110	18	1.1	0.9;
	58	1	6.31	-0	0	0.67	0	0.976712436	-31.654032	110	18	1.1	0.9;
	59	1	2.9	0.9	0	0.6	0	1.01783799	-31.0079027	110	15	1.1	0.9;
	60	1	-0	0	0.318913	17.760815	0	1.005347	-33.3581849	220	6	1.1	0.9;
	61	1	-0	-0	0.549745	0.432068	0	1.02077065	7.36915418	380	2	1.1	0.9;
	62	2	0	0	0	0	0	1.058268	-11.1508833	20	5	1.1	0.9;
	63	2	0	0	0	0	0	1.058268	-11.1508833	20	5	1.1	0.9;
	64	1	151.8	48.3	0	5.53	0	0.990182168	-46.5471181	220	4	1.1	0.9;
	65	1	127.6	31.8	0	20.51	0	0.95594804	3.02997042	150	8	1.1	0.9;
	66	2	0	0	0	0	0	1.034768	-18.371432	20	22	1.1	0.9;
	67	1	0	0	0	0.84	0	0.97130929	-33.1598	110	21	1.1	0.9;
	68	2	0	0	0	0	0	1.035023	-36.7291388	20	4	1.1	0.9;
	69	2	0	0	0	0	0	1.035023	-36.7291388	20	4	1.1	0.9;
	70	1	110.5	-26.8	0	16.37	0	0.999820048	-32.6194804	220	6	1.1	0.9;
	71	1	-0	-0	0	0	0	1.00429698	-12.6329168	20	5	1.1	0.9;
	72	1	-0	-0	0	0	0	1.00429698	-12.6329168	20	5	1.1	0.9;
	73	1	0	0	0	1.23	0	0.981151219	13.2153715	220	3	1.1	0.9;
	74	1	0	-0	0	0	0	1.00854337	-8.26671146	20	5	1.1	0.9;
	75	1	0	-0	0	0	0	1.00854337	-8.26671146	20	5	1.1	0.9;
	76	1	0	-0	0	0	0	1.00854337	-8.26671146	20	5	1.1	0.9;
	77	2	0	0	0	0	0	1.038344	-16.6012191	20	5	1.1	0.9;
	78	2	0	0	0	0	0	1.027383	-8.08039382	20	5	1.1	0.9;
	79	2	0	0	0	0	0	1.016716	-1.55745199	20	5	1.1	0.9;
	80	1	140	79.7	0	6.5	0	0.95851834	-14.6901689	220	3	1.1	0.9;
	81	1	21.6	3	0	3.54	0	0.977379301	-14.5057397	154	1	1.1	0.9;
	82	1	0	-0	0	2.31	0	1.00401409	-15.6212078	380	5	1.1	0.9;
	83	1	119.2	20.7	0	3.31	0	0.959143984	-22.3449192	220	5	1.1	0.9;
	84	1	26.43	9.9	0	9.57	0	0.96638967	-41.0685209	110	22	1.1	0.9;
	85	1	0.24	-1.66	0	0.65	0	1.02219826	-22.2787776	110	18	1.1	0.9;
	86	2	0	0	0	0	0	1.023881	-31.0046034	20	6	1.1	0.9;
	87	1	-0	0	0	0	0	1.00421632	-35.6640551	20	6	1.1	0.9;
	88	1	-0	0	0	0	0	1.00421632	-35.6640551	20	6	1.1	0.9;
	89	1	0	0	0	58.57	0	1.03986505	52.4423152	380	3	1.1	0.9;
	90	1	-0	0	0	1.34	0	0.964212619	-31.6699813	110	18	1.1	0.9;
	91	1	187.9	110.2	0	21.25	0	0.957659166	8.46082755	380	3	1.1	0.9;
	92	1	14.92	5.5	0	1.31	0	1.01706519	-28.4996702	110	15	1.1	0.9;
	93	1	-18.52	6.1	0	0.79	0	0.840996394	-40.2502737	150	9	1.1	0.9;
	94	2	0	0	0	0	0	1.022611	-6.91523702	11	1	1.1	0.9;
	95	1	4.61	1.7	0	2.32	0	0.998102679	-24.5990705	110	19	1.1	0.9;
	96	2	0	0	0	0	0	1.043225	-30.2496226	20	4	1.1	0.9;
	97	2	0	0	0	0	0	1.043225	-30.2496226	20	4	1.1	0.9;
	98	2	0	0	0	0	0	1.043225	-30.2496226	20	4	1.1	0.9;
	99	2	0	0	0	0	0	1.031885	-38.0655073	20	4	1.1	0.9;
	100	2	0	0	0	0	0	1.031885	-38.0655073	20	4	1.1	0.9;
	101	2	0	0	0	0	0	1.043225	-30.2496226	20	4	1.1	0.9;
	102	2	0	0	0	0	0	1.043225	-30.2496226	20	4	1.1	0.9;
	103	1	62.87	20.5	0	1.15	0	0.95540749	1.68113802	150	8	1.1	0.9;
	104	2	0	0	0	0	0	1.052257	23.5515737	20	3	1.1	0.9;
	105	1	13.5	14.8	0	132.435168	0	1.07691965	-27.3222093	380	9	1.2	0.8;
	106	1	126.3	42.4	0	55.24	0	0.990589419	6.02115986	150	8	1.1	0.9;
	107	2	0	0	0	0	0	1.028153	58.353912	20	3	1.1	0.9;
	108	1	6.91	-4.6	0	5.75	0	1.02635211	-39.5139003	220	4	1.1	0.9;
	109	1	15.72	5.2	0	0.11	0	0.953238214	-40.6302201	110	12	1.1	0.9;
	110	2	0	0	0	0	0	1.051233	67.3185123	20	3	1.1	0.9;
	111	1	16.12	4.3	0	0.49	0	1.02316946	-29.2842878	110	23	1.1	0.9;
	112	1	38.74	6.1	0	1.17	0	1.00102969	-52.2236636	220	4	1.1	0.9;
	113	1	22.13	10.7	0	14.21	0	1.04119617	30.4304718	220	8	1.1	0.9;
	114	2	0	0	0	0	0	1.030832	-35.8837694	20	4	1.1	0.9;
	115	2	0	0	0	0	0	1.019	-28.9294727	20	10	1.1	0.9;
	116	1	0	-0	0	0.73	0	1.015215	-49.1788537	220	4	1.1	0.9;
	117	1	0	0	0	0.83	0	0.988169226	-24.3596614	110	18	1.1	0.9;
	118	1	138.8	136.7	0	8.76	0	0.997106984	18.0359102	380	3	1.1	0.9;
	119	1	137.3	66.4	0.174767	14.17407	0	1.02650601	-30.5370337	220	23	1.1	0.9;
	120	1	67.76	19.18	0	1.47	0	0.976591696	68.6174573	150	1	1.1	0.9;
	121	2	0	0	0	0	0	1.045359	-16.9418413	20	14	1.1	0.9;
	122	1	0	-0	0	6.62	0	0.963798144	17.5566411	220	3	1.1	0.9;
	123	1	-0	-0	0	7.22	0	1.00693696	22.230559	380	1	1.1	0.9;
	124	1	1	0.3	0	0.19	0	0.978161803	-30.0714944	110	19	1.1	0.9;
	125	1	20.9	3	0	5.74	0	0.972317374	12.9122079	154	1	1.1	0.9;
	126	1	0	0	0	0.12	0	1.0251664	-32.255435	150	9	1.1	0.9;
	127	1	21.52	5.1	0	0.5	0	1.01553758	-18.4093613	110	18	1.1	0.9;
	128	1	71.98	28.8	0	11	0	0.992947125	-30.598347	220	6	1.1	0.9;
	129	1	0	0	0.205132	4.470744	0	0.978648392	-0.355105007	380	2	1.1	0.9;
	130	1	363.25	115.39	0	3.95	0	0.982987829	-26.2609179	220	5	1.1	0.9;
	131	1	192.9	73.3	0	20.75	0	0.962400739	6.96071558	380	3	1.1	0.9;
	132	2	0	0	0	0	0	0.996117	2.20342599	11	1	1.1	0.9;
	133	2	0	0	0	0	0	1.042317	-13.9173569	20	14	1.1	0.9;
	134	2	0	0	0	0	0	1.044129	-30.4526989	20	4	1.1	0.9;
	135	2	0	0	0	0	0	1.030832	-35.8837694	20	4	1.1	0.9;
	136	2	0	0	0	0	0	1.049674	66.7843808	20	3	1.1	0.9;
	137	1	17.52	6.3	0	0.26	0	0.993058134	-25.7760685	110	19	1.1	0.9;
	138	1	33.14	12	0	0.65	0	0.968967976	-29.091548	110	19	1.1	0.9;
	139	1	40.44	25	0	9.82	0	0.941489797	-38.1074183	150	9	1.1	0.9;
	140	1	193.17	53.37	0	4.58	0	0.984897448	-12.7613486	220	5	1.1	0.9;
	141	1	90.7	25.5	0	3.11	0	0.93601499	-0.698573224	220	3	1.2	0.8;
	142	1	176.3	-58.9	0	24.77	0	1.00655309	-26.5211568	380	6	1.1	0.9;
	143	1	35.94	22.3	0	0	0	0.952526554	-36.3207923	150	9	1.1	0.9;
	144	2	0	0	0	0	0	1.034631	-18.1708349	20	14	1.1	0.9;
	145	2	0	0	0	0	0	1.040587	12.8672683	20	5	1.1	0.9;
	146	2	0	0	0	0	0	1.044313	11.6671558	20	5	1.1	0.9;
	147	2	0	0	0	0	0	1.044313	11.6671558	20	5	1.1	0.9;
	148	1	143.9	123.2	0	72.64	0	0.982736066	8.22890134	380	3	1.1	0.9;
	149	1	-0	-0	0	3.77	0	0.995762872	-49.6802674	220	6	1.1	0.9;
	150	1	-0	8.4	0	15.72	0	0.975577969	-35.9562955	150	9	1.1	0.9;
	151	2	0	0	0	0	0	1.023215	-10.1187343	13.8	1	1.1	0.9;
	152	1	51.36	-8.8	0	2.15	0	0.949285819	-54.6066814	220	6	1.1	0.9;
	153	2	0	0	0	0	0	1.027348	-6.56024244	20	14	1.1	0.9;
	154	2	0	0	0	0	0	1.05252	54.5584653	20	3	1.1	0.9;
	155	1	-0	-0	0	82.55	0	1.00634274	-31.4649616	380	6	1.1	0.9;
	156	2	0	0	0	0	0	1.034597	-7.4217756	20	6	1.1	0.9;
	157	1	322.7	11.9	0	10.28	0	0.988985318	-38.7366469	380	6	1.1	0.9;
	158	1	303.6	79.8	0.019533	1.690467	0	0.996319027	-13.3614554	220	5	1.1	0.9;
	159	1	3.8	1.3	0	0.4	0	1.01547437	-19.8401154	110	18	1.1	0.9;
	160	1	137	19.5	0	4.9	0	0.982727722	-16.6019464	154	1	1.1	0.9;
	161	2	0	0	0	0	0	1.034597	-7.4217756	20	6	1.1	0.9;
	162	2	0	0	0	0	0	1.034597	-7.4217756	20	6	1.1	0.9;
	163	1	0	0	0	0	0	0.907456628	-39.9421128	150	9	1.1	0.9;
	164	1	61.07	36	0	3.09	0	0.964642264	-24.910512	220	11	1.1	0.9;
	165	2	0	0	0	0	0	1.030832	-35.8837694	20	4	1.1	0.9;
	166	1	-0	0	0	3.24	0	0.926597982	-8.97575562	220	3	1.1	0.9;
	167	1	0	0	0	6.520303	0	1.01153599	-11.8477621	380	5	1.1	0.9;
	168	1	55.7	7.9	0	4.21	0	0.965146445	5.88136032	154	1	1.1	0.9;
	169	1	0	0	0	4.21	0	0.946985459	-18.2963195	220	5	1.1	0.9;
	170	1	1.8	0.7	0	0.3	0	0.968139951	-28.4466206	110	19	1.1	0.9;
	171	1	0	-0	0	0.71	0	0.927506359	-38.822199	150	9	1.1	0.9;
	172	1	2.5	0	0	0.96	0	0.952549466	-34.0274241	110	18	1.1	0.9;
	173	1	0	0	0	0.09	0	0.994034007	-26.6979372	150	9	1.1	0.9;
	174	1	38.94	11	0	0.64	0	0.951266891	-37.610214	110	1	1.1	0.9;
	175	1	45.15	14.1	0	0.19	0	1.03370542	-30.0795894	110	15	1.1	0.9;
	176	1	0	-0	0	5.75	0	0.97513192	12.1978289	220	3	1.1	0.9;
	177	1	0	0	0.019004	4.360996	0	0.971291623	-21.670168	220	11	1.1	0.9;
	178	1	0	-0	0.566322	-0.241138	0	1.05300014	12.2499531	220	5	1.1	0.9;
	179	2	0	0	0	0	0	1.023144	-35.6469211	20	4	1.1	0.9;
	180	1	17.22	5.7	0	1.22	0	0.93306334	-36.1011271	110	21	1.1	0.9;
	181	1	-0	-0	0	0	0	1.01451772	-14.1104494	20	14	1.1	0.9;
	182	2	0	0	0	0	0	1.054937	-23.1165202	20	20	1.1	0.9;
	183	1	0	0	0	4.3	0	1.00389391	-25.4335503	220	6	1.1	0.9;
	184	1	23.73	12.7	0	0.52	0	0.94426529	-14.4039509	220	5	1.1	0.9;
	185	1	121.9	7.4	0	1.34	0	0.980482003	-9.95340966	220	3	1.1	0.9;
	186	1	0	-0	0.135375	47.750675	0	1.0158714	-45.9046549	380	10	1.1	0.9;
	187	1	47.35	16.4	0	4.08	0	0.993809951	-39.8586379	110	22	1.1	0.9;
	188	1	-0	0	0	0	0	1.01144454	-48.6610385	20	4	1.1	0.9;
	189	1	-0	-0	0	21.39	0	1.02605024	-42.3303066	380	1	1.1	0.9;
	190	1	38.14	12.5	0	6.28	0	0.957879168	4.80956378	150	8	1.1	0.9;
	191	1	54.2	7.8	0	94.9	0	0.98710688	2.09042019	400	1	1.1	0.9;
	192	1	130.6	84.9	0	4.22	0	0.987428714	-19.8914385	220	7	1.1	0.9;
	193	1	7.91	2.6	0	0.74	0	0.95446401	-38.0626815	110	12	1.1	0.9;
	194	1	42.1	74.61	0	37.58	0	0.966175237	68.9237984	150	1	1.1	0.9;
	195	1	-75.38	7.8	0	29.9	0	1.00955483	-40.0593467	380	10	1.1	0.9;
	196	2	0	0	0	0	0	1.021915	-36.1575323	20	6	1.1	0.9;
	197	2	0	0	0	0	0	1.005341	-27.7722781	20	4	1.1	0.9;
	198	1	41.05	14.3	0	11.53	0	1.00114595	-25.9854058	220	6	1.1	0.9;
	199	1	-0	-0	0	4.14	0	0.989140886	21.6040797	220	8	1.1	0.9;
	200	1	100.9	49.3	0.020067	4.329933	0	0.961713532	-0.283753261	220	13	1.1	0.9;
...
];

%% generator data
%	bus	Pg	Qg	Qmax	Qmin	Vg	mBase	status	Pmax	Pmin	Pc1	Pc2	Qc1min	Qc1max	Qc2min	Qc2max	ramp_agc	ramp_10	ramp_30	ramp_q	apf
mpc.gen = [
	1	368.913303	107.310992	40	-10	1.031695	100	1	100	28.22	0	0	0	0	0	0	0	0	0	0	0;
	12	238.58	-11.7728372	210	-50	1.004054	100	1	500	100	0	0	0	0	0	0	0	0	0	0	0;
	18	38.02	13.6829714	30	-10	1.043087	100	1	100	25.35	0	0	0	0	0	0	0	0	0	0	0;
	29	34.78	12.0174259	30	-10	1.033319	100	1	100	23.19	0	0	0	0	0	0	0	0	0	0	0;
	33	25.35	4.00478401	40	-10	1.018631	100	1	100	16.9	0	0	0	0	0	0	0	0	0	0	0;
	39	214.6	84.9631343	210	-50	1.073284	100	1	500	100	0	0	0	0	0	0	0	0	0	0	0;
	42	16.1	-1.63830783	20	-20	0.985213	100	1	100	10.73	0	0	0	0	0	0	0	0	0	0	0;
	45	192.55	1.78797934	160	-40	1.012099	100	1	400	100	0	0	0	0	0	0	0	0	0	0	0;
	51	161	20.5606546	90	-90	1.011416	100	1	400	100	0	0	0	0	0	0	0	0	0	0	0;
	54	37.08	5.61477272	30	-10	1.021005	100	1	100	24.72	0	0	0	0	0	0	0	0	0	0	0;
	62	617.7	111.356231	520	-120	1.058268	100	1	1300	400	0	0	0	0	0	0	0	0	0	0	0;
	63	617.7	111.356231	520	-120	1.058268	100	1	1300	400	0	0	0	0	0	0	0	0	0	0	0;
	66	179.12	34.6693141	160	-40	1.034768	100	1	400	100	0	0	0	0	0	0	0	0	0	0	0;
	68	53.72	10.4550418	40	-10	1.035023	100	1	200	35.81	0	0	0	0	0	0	0	0	0	0	0;
	69	53.72	10.4550418	40	-10	1.035023	100	1	200	35.81	0	0	0	0	0	0	0	0	0	0	0;
	77	24.65	38.5540961	30	-10	1.038344	100	1	100	16.43	0	0	0	0	0	0	0	0	0	0	0;
	78	54.48	16.4455974	30	-10	1.027383	100	1	200	36.32	0	0	0	0	0	0	0	0	0	0	0;
	79	18.13	10.8269502	30	-10	1.016716	100	1	100	12.09	0	0	0	0	0	0	0	0	0	0	0;
	86	152.7	38.928378	80	-20	1.023881	100	1	400	100	0	0	0	0	0	0	0	0	0	0	0;
	94	17.64	13.1675495	20	-10	1.022611	100	1	100	11.76	0	0	0	0	0	0	0	0	0	0	0;
	96	49.42	11.812843	40	-10	1.043225	100	1	100	32.95	0	0	0	0	0	0	0	0	0	0	0;
	97	49.42	11.812843	40	-10	1.043225	100	1	100	32.95	0	0	0	0	0	0	0	0	0	0	0;
	98	49.42	11.812843	40	-10	1.043225	100	1	100	32.95	0	0	0	0	0	0	0	0	0	0	0;
	99	23.85	1.84654381	40	-10	1.031885	100	1	100	15.9	0	0	0	0	0	0	0	0	0	0	0;
	100	23.85	1.84654381	40	-10	1.031885	100	1	100	15.9	0	0	0	0	0	0	0	0	0	0	0;
	101	49.42	11.812843	40	-10	1.043225	100	1	100	32.95	0	0	0	0	0	0	0	0	0	0	0;
	102	49.42	11.812843	40	-10	1.043225	100	1	100	32.95	0	0	0	0	0	0	0	0	0	0	0;
	104	87.95	48.4805226	60	-20	1.052257	100	1	200	58.63	0	0	0	0	0	0	0	0	0	0	0;
	107	68.26	-12.7862757	60	-20	1.028153	100	1	200	45.51	0	0	0	0	0	0	0	0	0	0	0;
	110	91.47	11.123328	60	-20	1.051233	100	1	200	60.98	0	0	0	0	0	0	0	0	0	0	0;
	114	42.35	4.91037537	40	-10	1.030832	100	1	100	28.23	0	0	0	0	0	0	0	0	0	0	0;
	115	22.35	0.796003616	30	-10	1.019	100	1	100	14.9	0	0	0	0	0	0	0	0	0	0	0;
	121	36.03	18.9413693	30	-10	1.045359	100	1	100	24.02	0	0	0	0	0	0	0	0	0	0	0;
	132	6.52	-0.481711075	10	-10	0.996117	100	1	100	4.35	0	0	0	0	0	0	0	0	0	0	0;
	133	36.77	13.1288525	30	-10	1.042317	100	1	100	24.51	0	0	0	0	0	0	0	0	0	0	0;
	134	45.54	14.5903352	40	-10	1.044129	100	1	100	30.36	0	0	0	0	0	0	0	0	0	0	0;
	135	42.35	4.91037537	40	-10	1.030832	100	1	100	28.23	0	0	0	0	0	0	0	0	0	0	0;
	136	50.83	3.11158355	60	-20	1.049674	100	1	200	33.89	0	0	0	0	0	0	0	0	0	0	0;
	144	17.8	9.51656204	30	-10	1.034631	100	1	100	11.87	0	0	0	0	0	0	0	0	0	0	0;
	145	612.01	93.2238938	520	-120	1.040587	100	1	1300	400	0	0	0	0	0	0	0	0	0	0	0;
	146	612.04	125.359455	520	-120	1.044313	100	1	1300	400	0	0	0	0	0	0	0	0	0	0	0;
	147	612.04	125.359455	520	-120	1.044313	100	1	1300	400	0	0	0	0	0	0	0	0	0	0	0;
	151	204	46.181758	150	-60	1.023215	100	1	500	100	0	0	0	0	0	0	0	0	0	0	0;
	153	36.13	6.18777335	30	-10	1.027348	100	1	100	24.09	0	0	0	0	0	0	0	0	0	0	0;
	154	766.83	29.5866134	520	-120	1.05252	100	1	1600	500	0	0	0	0	0	0	0	0	0	0	0;
	156	49.34	9.39682413	40	-10	1.034597	100	1	100	32.89	0	0	0	0	0	0	0	0	0	0	0;
	161	49.34	9.39682413	40	-10	1.034597	100	1	100	32.89	0	0	0	0	0	0	0	0	0	0	0;
	162	49.34	9.39682413	40	-10	1.034597	100	1	100	32.89	0	0	0	0	0	0	0	0	0	0	0;
	165	42.35	4.91037537	40	-10	1.030832	100	1	100	28.23	0	0	0	0	0	0	0	0	0	0	0;
	179	95.02	5.72089169	60	-20	1.023144	100	1	200	63.35	0	0	0	0	0	0	0	0	0	0	0;
	182	34.96	10.7464217	30	-10	1.054937	100	1	100	23.31	0	0	0	0	0	0	0	0	0	0	0;
	196	81.07	19.729635	60	-20	1.021915	100	1	200	54.05	0	0	0	0	0	0	0	0	0	0	0;
	197	245.73	-28.4999114	160	-40	1.005341	100	1	500	100	0	0	0	0	0	0	0	0	0	0	0;
	207	27.95	10.1587392	30	-10	1.016461	100	1	100	18.63	0	0	0	0	0	0	0	0	0	0	0;
	220	97.72	55.0832297	60	-20	1.055654	100	1	200	65.15	0	0	0	0	0	0	0	0	0	0	0;
	221	97.72	55.0832297	60	-20	1.055654	100	1	200	65.15	0	0	0	0	0	0	0	0	0	0	0;
	222	97.66	41.4398871	60	-20	1.051105	100	1	200	65.11	0	0	0	0	0	0	0	0	0	0	0;
	223	97.72	55.0832297	60	-20	1.055654	100	1	200	65.15	0	0	0	0	0	0	0	0	0	0	0;
	224	97.66	41.4398871	60	-20	1.051105	100	1	200	65.11	0	0	0	0	0	0	0	0	0	0	0;
	225	97.66	41.4398871	60	-20	1.051105	100	1	200	65.11	0	0	0	0	0	0	0	0	0	0	0;
	229	21.03	12.7881313	30	-10	1.034441	100	1	100	14.02	0	0	0	0	0	0	0	0	0	0	0;
	241	601.87	97.0242554	520	-120	1.037622	100	1	1300	400	0	0	0	0	0	0	0	0	0	0	0;
	243	32.43	19.0959259	30	-10	1.053647	100	1	100	21.62	0	0	0	0	0	0	0	0	0	0	0;
	248	26.38	16.5821597	30	-10	1.026279	100	1	100	17.59	0	0	0	0	0	0	0	0	0	0	0;
	250	192.55	1.78797934	160	-40	1.012099	100	1	400	100	0	0	0	0	0	0	0	0	0	0	0;
	258	8.2	-1.73326472	10	-10	0.955439	100	1	100	5.47	0	0	0	0	0	0	0	0	0	0	0;
	259	38.51	6.90319112	30	-10	1.03425	100	1	100	25.67	0	0	0	0	0	0	0	0	0	0	0;
	266	28.48	4.57333043	30	-10	1.005915	100	1	100	18.99	0	0	0	0	0	0	0	0	0	0	0;
	270	18.4	3.82400652	20	-20	1.003342	100	1	100	12.27	0	0	0	0	0	0	0	0	0	0	0;
	271	626.63	174.876003	520	-120	1.053159	100	1	1300	400	0	0	0	0	0	0	0	0	0	0	0;
	273	626.63	169.553237	520	-120	1.051456	100	1	1300	400	0	0	0	0	0	0	0	0	0	0	0;
	274	626.64	167.852327	520	-120	1.051088	100	1	1300	400	0	0	0	0	0	0	0	0	0	0	0;
	275	626.64	167.852327	520	-120	1.051088	100	1	1300	400	0	0	0	0	0	0	0	0	0	0	0;
	276	626.64	165.753421	520	-120	1.050379	100	1	1300	400	0	0	0	0	0	0	0	0	0	0	0;
	278	627	-31.3428574	320	-190	0.960771	100	1	1300	400	0	0	0	0	0	0	0	0	0	0	0;
	283	8	2.63118102	10	-10	1.000621	100	1	100	5.33	0	0	0	0	0	0	0	0	0	0	0;
	289	36.9	19.4140131	30	-10	1.040289	100	1	100	24.6	0	0	0	0	0	0	0	0	0	0	0;
	294	92.8	5.97198746	50	-50	0.999187	100	1	200	61.87	0	0	0	0	0	0	0	0	0	0	0;
	296	21	5.68982568	10	-10	0.989117	100	1	100	14	0	0	0	0	0	0	0	0	0	0	0;
	299	158.9	-2.45084318	100	-30	0.993468	100	1	400	100	0	0	0	0	0	0	0	0	0	0	0;
	304	39.98	11.1537678	30	-10	1.037997	100	1	100	26.65	0	0	0	0	0	0	0	0	0	0	0;
	305	27.73	5.33087975	30	-10	1.030407	100	1	100	18.49	0	0	0	0	0	0	0	0	0	0	0;
	306	27.73	5.33087975	30	-10	1.030407	100	1	100	18.49	0	0	0	0	0	0	0	0	0	0	0;
	307	17.66	20.0593468	30	-10	1.049321	100	1	100	11.77	0	0	0	0	0	0	0	0	0	0	0;
	308	17.66	20.0593468	30	-10	1.049321	100	1	100	11.77	0	0	0	0	0	0	0	0	0	0	0;
	309	32.08	11.5919091	30	-10	1.05655	100	1	100	21.39	0	0	0	0	0	0	0	0	0	0	0;
	310	32.08	11.5919091	30	-10	1.05655	100	1	100	21.39	0	0	0	0	0	0	0	0	0	0	0;
	311	32.08	11.5919091	30	-10	1.05655	100	1	100	21.39	0	0	0	0	0	0	0	0	0	0	0;
	312	32.08	11.5919091	30	-10	1.05655	100	1	100	21.39	0	0	0	0	0	0	0	0	0	0	0;
	315	2.06	0.71050929	10	-10	1.021202	100	1	100	1.37	0	0	0	0	0	0	0	0	0	0	0;
	323	419.13	52.4137607	520	-120	1.016993	100	1	900	200	0	0	0	0	0	0	0	0	0	0	0;
	324	5	0.673195613	10	-10	1.024179	100	1	100	3.33	0	0	0	0	0	0	0	0	0	0	0;
	325	4.8	0.716671631	10	-10	0.996355	100	1	100	3.2	0	0	0	0	0	0	0	0	0	0	0;
	328	54.54	49.3082538	40	-10	1.023168	100	1	200	36.36	0	0	0	0	0	0	0	0	0	0	0;
	331	27.62	15.0399544	30	-20	1.006233	100	1	100	18.41	0	0	0	0	0	0	0	0	0	0	0;
	332	2	0.214403728	10	-10	0.996766	100	1	100	1.33	0	0	0	0	0	0	0	0	0	0	0;
	336	16.08	-1.1235843	10	-10	1.010862	100	1	100	10.72	0	0	0	0	0	0	0	0	0	0	0;
	338	16.08	-3.456876	10	-10	1.00038	100	1	100	10.72	0	0	0	0	0	0	0	0	0	0	0;
	345	333.1	48.7972612	210	-50	1.030395	100	1	700	200	0	0	0	0	0	0	0	0	0	0	0;
	346	333.1	48.7972612	210	-50	1.030395	100	1	700	200	0	0	0	0	0	0	0	0	0	0	0;
	351	167.59	37.4791849	210	-50	1.024484	100	1	400	100	0	0	0	0	0	0	0	0	0	0	0;
	354	36.42	11.0635556	30	-10	1.029166	100	1	100	24.28	0	0	0	0	0	0	0	0	0	0	0;
	358	165.24	118.379696	210	-50	1.050725	100	1	400	100	0	0	0	0	0	0	0	0	0	0	0;
	360	84.12	20.2886492	60	-20	1.028641	100	1	200	56.08	0	0	0	0	0	0	0	0	0	0	0;
	361	84.12	20.2886492	60	-20	1.028641	100	1	200	56.08	0	0	0	0	0	0	0	0	0	0	0;
	362	84.12	20.2886492	60	-20	1.028641	100	1	200	56.08	0	0	0	0	0	0	0	0	0	0	0;
	363	84.12	20.2886492	60	-20	1.028641	100	1	200	56.08	0	0	0	0	0	0	0	0	0	0	0;
	364	5.25	-0.125365195	10	-10	1.00564	100	1	100	3.5	0	0	0	0	0	0	0	0	0	0	0;
	365	95.2	32.1254125	110	-30	0.997585	100	1	200	63.47	0	0	0	0	0	0	0	0	0	0	0;
	368	84.12	20.2886492	60	-20	1.028641	100	1	200	56.08	0	0	0	0	0	0	0	0	0	0	0;
	369	84.12	20.2886492	60	-20	1.028641	100	1	200	56.08	0	0	0	0	0	0	0	0	0	0	0;
	382	102.03	1.4891605	60	-20	0.990596	100	1	300	68.02	0	0	0	0	0	0	0	0	0	0	0;
	383	102.24	50.3056166	60	-20	1.012482	100	1	300	68.16	0	0	0	0	0	0	0	0	0	0	0;
	392	1.03	0.495949285	10	-10	1.030636	100	1	100	0.69	0	0	0	0	0	0	0	0	0	0	0;
	394	37.9	15.5176607	30	-10	1.0326	100	1	100	25.27	0	0	0	0	0	0	0	0	0	0	0;
	395	37.23	6.09118123	30	-10	1.028283	100	1	100	24.82	0	0	0	0	0	0	0	0	0	0	0;
	396	85.28	23.5629689	60	-20	1.029542	100	1	200	56.85	0	0	0	0	0	0	0	0	0	0	0;
	400	94.5	-3.52338902	50	-40	0.979015	100	1	200	63	0	0	0	0	0	0	0	0	0	0	0;
	405	33.64	12.7720468	30	-10	1.00773	100	1	100	22.43	0	0	0	0	0	0	0	0	0	0	0;
	406	33.64	12.7720468	30	-10	1.00773	100	1	100	22.43	0	0	0	0	0	0	0	0	0	0	0;
	408	34.92	19.0101485	30	-10	1.043492	100	1	100	23.28	0	0	0	0	0	0	0	0	0	0	0;
	423	0.99	-0.0532335986	10	-10	1.015919	100	1	100	0.66	0	0	0	0	0	0	0	0	0	0	0;
	432	4.5	1.41193238	10	-10	1.016602	100	1	100	3	0	0	0	0	0	0	0	0	0	0	0;
	433	30.04	4.98869417	30	-10	1.011489	100	1	100	20.03	0	0	0	0	0	0	0	0	0	0	0;
	438	18.13	10.8269502	30	-10	1.016716	100	1	100	12.09	0	0	0	0	0	0	0	0	0	0	0;
	442	31.35	20.6044493	30	-10	1.043357	100	1	100	20.9	0	0	0	0	0	0	0	0	0	0	0;
	448	25.22	12.4716605	20	-10	1.038795	100	1	100	16.81	0	0	0	0	0	0	0	0	0	0	0;
	454	8.35	-0.0236377697	10	-10	0.973833	100	1	100	5.57	0	0	0	0	0	0	0	0	0	0	0;
	458	31.28	6.95775341	30	-10	1.009892	100	1	100	20.85	0	0	0	0	0	0	0	0	0	0	0;
	463	-19.98	1178.31418	100000	-100000	1.126642	100	1	100	-26.64	0	0	0	0	0	0	0	0	0	0	0;
	470	74.8	45.2334472	60	-20	1.046905	100	1	200	49.87	0	0	0	0	0	0	0	0	0	0	0;
	476	214.05	92.0312063	210	-50	1.029484	100	1	500	100	0	0	0	0	0	0	0	0	0	0	0;
	477	38.02	13.6829714	30	-10	1.043087	100	1	100	25.35	0	0	0	0	0	0	0	0	0	0	0;
	480	89.2	23.0721759	60	-20	1.033425	100	1	200	59.47	0	0	0	0	0	0	0	0	0	0	0;
	481	89.2	23.0721759	60	-20	1.033425	100	1	200	59.47	0	0	0	0	0	0	0	0	0	0	0;
	482	89.2	23.0721759	60	-20	1.033425	100	1	200	59.47	0	0	0	0	0	0	0	0	0	0	0;
	483	89.2	23.0721759	60	-20	1.033425	100	1	200	59.47	0	0	0	0	0	0	0	0	0	0	0;
	485	325.03	152.173911	210	-50	1.059619	100	1	700	200	0	0	0	0	0	0	0	0	0	0	0;
	492	273.28	120.64847	210	-50	1.041985	100	1	600	100	0	0	0	0	0	0	0	0	0	0	0;
	496	64.28	29.8127307	60	-20	1.00876	100	1	200	42.85	0	0	0	0	0	0	0	0	0	0	0;
	508	857.64	223.690166	520	-120	1.044776	100	1	1800	500	0	0	0	0	0	0	0	0	0	0	0;
	509	857.69	229.26478	520	-120	1.044388	100	1	1800	500	0	0	0	0	0	0	0	0	0	0	0;
	510	857.66	218.121339	520	-120	1.044096	100	1	1800	500	0	0	0	0	0	0	0	0	0	0	0;
	514	857.64	220.668777	520	-120	1.044511	100	1	1800	500	0	0	0	0	0	0	0	0	0	0	0;
	516	32.57	18.0758062	30	-10	1.041748	100	1	100	21.71	0	0	0	0	0	0	0	0	0	0	0;
	528	23.66	3.33856532	30	-10	1.020703	100	1	100	15.77	0	0	0	0	0	0	0	0	0	0	0;
	531	38.79	7.74216553	30	-10	1.035838	100	1	100	25.86	0	0	0	0	0	0	0	0	0	0	0;
	532	258.95	66.4860889	210	-50	1.036699	100	1	600	100	0	0	0	0	0	0	0	0	0	0	0;
	533	164.92	23.1924724	160	-40	1.016377	100	1	400	100	0	0	0	0	0	0	0	0	0	0	0;
	539	152	14.6523746	90	-40	0.993492	100	1	400	100	0	0	0	0	0	0	0	0	0	0	0;
	552	30.6	2.10322378	20	-20	0.99834	100	1	100	20.4	0	0	0	0	0	0	0	0	0	0	0;
	559	51.5	-4.23681728	30	-30	0.954584	100	1	200	34.33	0	0	0	0	0	0	0	0	0	0	0;
	564	21.77	11.8918828	30	-10	1.024499	100	1	100	14.51	0	0	0	0	0	0	0	0	0	0	0;
	572	7	6.77930237	10	-10	1.004314	100	1	100	4.67	0	0	0	0	0	0	0	0	0	0	0;
	575	18.09	1.95972864	30	-10	1.016739	100	1	100	12.06	0	0	0	0	0	0	0	0	0	0	0;
	576	18.09	1.95972864	30	-10	1.016739	100	1	100	12.06	0	0	0	0	0	0	0	0	0	0	0;
	577	18.09	1.95972864	30	-10	1.016739	100	1	100	12.06	0	0	0	0	0	0	0	0	0	0	0;
	581	18.09	1.95972864	30	-10	1.016739	100	1	100	12.06	0	0	0	0	0	0	0	0	0	0	0;
	585	72.61	31.9920774	60	-20	1.041629	100	1	200	48.41	0	0	0	0	0	0	0	0	0	0	0;
	589	13.38	1.39863067	10	-10	1.00755	100	1	100	8.92	0	0	0	0	0	0	0	0	0	0	0;
	610	31.95	19.6174108	30	-10	1.019723	100	1	100	21.3	0	0	0	0	0	0	0	0	0	0	0;
	614	34.81	17.1972164	40	-10	1.031902	100	1	100	23.21	0	0	0	0	0	0	0	0	0	0	0;
	615	34.81	17.1972164	40	-10	1.031902	100	1	100	23.21	0	0	0	0	0	0	0	0	0	0	0;
	619	42.5	0.0183108124	40	-10	1.031502	100	1	100	28.33	0	0	0	0	0	0	0	0	0	0	0;
	621	5.8	1.22132971	10	-10	1.003942	100	1	100	3.87	0	0	0	0	0	0	0	0	0	0	0;
	623	36.03	18.9413693	30	-10	1.045359	100	1	100	24.02	0	0	0	0	0	0	0	0	0	0	0;
	626	43.29	23.5657323	60	-20	1.035771	100	1	100	28.86	0	0	0	0	0	0	0	0	0	0	0;
	635	0.13	0.0879605308	10	-10	1.023511	100	1	100	0.09	0	0	0	0	0	0	0	0	0	0	0;
	637	25.22	4.87161093	30	-10	1.04616	100	1	100	16.81	0	0	0	0	0	0	0	0	0	0	0;
	646	333.1	48.7972612	210	-50	1.030395	100	1	700	200	0	0	0	0	0	0	0	0	0	0	0;
	648	322.05	22.8688041	210	-50	1.007781	100	1	700	200	0	0	0	0	0	0	0	0	0	0	0;
	649	333.1	48.7972612	210	-50	1.030395	100	1	700	200	0	0	0	0	0	0	0	0	0	0	0;
	651	188.27	0.698071715	210	-50	1.028351	100	1	400	100	0	0	0	0	0	0	0	0	0	0	0;
	652	188.27	0.698071715	210	-50	1.028351	100	1	400	100	0	0	0	0	0	0	0	0	0	0	0;
	654	92.4	1.9619544	60	-20	1.014507	100	1	200	61.6	0	0	0	0	0	0	0	0	0	0	0;
	660	33.21	6.8332167	30	-10	1.022689	100	1	100	22.14	0	0	0	0	0	0	0	0	0	0	0;
	666	31.3	17.2440408	30	-10	1.018739	100	1	100	20.87	0	0	0	0	0	0	0	0	0	0	0;
	671	25.2	2.84115893	20	-10	0.999061	100	1	100	16.8	0	0	0	0	0	0	0	0	0	0	0;
	676	274.65	48.3389899	160	-40	1.018066	100	1	600	100	0	0	0	0	0	0	0	0	0	0	0;
	681	84.68	-23.5747426	60	-20	1.00657	100	1	200	56.45	0	0	0	0	0	0	0	0	0	0	0;
	684	68.89	21.4464611	60	-20	1.035618	100	1	200	45.93	0	0	0	0	0	0	0	0	0	0	0;
	693	209.96	70.4282282	160	-40	1.038999	100	1	500	100	0	0	0	0	0	0	0	0	0	0	0;
	695	8.4	2.07527441	10	-10	1.010516	100	1	100	5.6	0	0	0	0	0	0	0	0	0	0	0;
	698	26.72	5.31933668	20	-10	1.018527	100	1	100	17.81	0	0	0	0	0	0	0	0	0	0	0;
	709	626.68	221.455807	520	-120	1.051727	100	1	1300	400	0	0	0	0	0	0	0	0	0	0	0;
	715	23.9	-0.873431114	30	-10	1.007844	100	1	100	15.93	0	0	0	0	0	0	0	0	0	0	0;
	717	23.12	10.4920454	10	0	1.027572	100	1	100	15.41	0	0	0	0	0	0	0	0	0	0	0;
	721	74.35	11.8606235	60	-20	0.992442	100	1	200	49.57	0	0	0	0	0	0	0	0	0	0	0;
	724	35.5	16.3334039	30	-10	1.045213	100	1	100	23.67	0	0	0	0	0	0	0	0	0	0	0;
	730	98.46	15.4835773	60	-20	1.01458	100	1	200	65.64	0	0	0	0	0	0	0	0	0	0	0;
	731	98.46	15.4835773	60	-20	1.01458	100	1	200	65.64	0	0	0	0	0	0	0	0	0	0	0;
	732	98.46	15.4835773	60	-20	1.01458	100	1	200	65.64	0	0	0	0	0	0	0	0	0	0	0;
	734	98.46	15.4835773	60	-20	1.01458	100	1	200	65.64	0	0	0	0	0	0	0	0	0	0	0;
	746	16	0.676389503	10	-10	0.994194	100	1	100	10.67	0	0	0	0	0	0	0	0	0	0	0;
	749	22.58	16.4614994	30	-10	1.009791	100	1	100	15.05	0	0	0	0	0	0	0	0	0	0	0;
	750	22.58	16.4614994	30	-10	1.009791	100	1	100	15.05	0	0	0	0	0	0	0	0	0	0	0;
	751	22.58	16.4614994	30	-10	1.009791	100	1	100	15.05	0	0	0	0	0	0	0	0	0	0	0;
	753	20.64	8.49591988	30	-10	1.018866	100	1	100	13.76	0	0	0	0	0	0	0	0	0	0	0;
	754	64.65	5.14985749	60	-20	1.009683	100	1	200	43.1	0	0	0	0	0	0	0	0	0	0	0;
	765	78.37	34.9198093	60	-20	1.032985	100	1	200	52.25	0	0	0	0	0	0	0	0	0	0	0;
...
];

%% branch data
%	fbus	tbus	r	x	b	rateA	rateB	rateC	ratio	angle	status	angmin	angmax	Pf	Qf	Pt	Qt
mpc.branch = [
	7519	4482	0.0006	0.00616	0	0	0	0	1	0	1	-360	360	-59.8044	30.1828	59.8304	-29.9158;
	7519	11823	0.0005	0.0074	0	0	0	0	1	0	1	-360	360	59.8044	-11.7398	-59.7865	12.0052;
	3073	4516	0.00107	0.00626	0	0	0	0	1	0	1	-360	360	-172.9858	12.5995	173.3019	-10.7502;
	3073	4706	0.000841	0.0055	0	0	0	0	1	0	1	-360	360	172.9858	-11.2451	-172.7377	12.8681;
	5157	1032	0.00143	0.01563	0	0	0	0	1	0	1	-360	360	874.6381	-25.2527	-864.3957	137.2025;
	5157	6653	0.00146	0.01692	0	0	0	0	1	0	1	-360	360	-874.6381	70.9072	885.1553	50.9771;
	628	7896	7e-05	0.00057	0	0	0	0	1	0	1	-360	360	280.4707	-78.7092	-280.4141	79.1701;
	628	6592	6e-05	0.00056	0	0	0	0	1	0	1	-360	360	-280.4707	80.0107	280.5194	-79.5568;
	11792	10888	0.003349	0.01656	0	0	0	0	1	0	1	-360	360	-2.5242	8.9473	2.5270	-8.9334;
	11792	4609	0.003409	0.016211	0	0	0	0	1	0	1	-360	360	2.5242	-6.0811	-2.5228	6.0879;
	6573	10888	0.003479	0.01586	0	0	0	0	1	0	1	-360	360	-2.4965	8.7529	2.4993	-8.7401;
	6573	4609	0.003099	0.017969	0	0	0	0	1	0	1	-360	360	2.4965	-5.9696	-2.4953	5.9769;
	782	13300	0.00127	0.01842	0	0	0	0	1	0	1	-360	360	-537.8432	81.6171	541.5665	-27.6137;
	782	1186	0.00126	0.01847	0	0	0	0	1	0	1	-360	360	537.8432	-33.7712	-534.2180	86.9110;
	11715	924	0.0013	0.01808	0	0	0	0	1	0	1	-360	360	-622.5761	87.1346	627.6911	-15.9963;
	11715	12182	0.00131	0.01765	0	0	0	0	1	0	1	-360	360	622.5761	-38.1804	-617.5017	106.5489;
	10257	2582	0.00065	0.01311	0	0	0	0	1	0	1	-360	360	472.4997	428.9182	-470.5097	-388.7810;
	10257	9363	0.00067	0.00974	0	0	0	0	1	0	1	-360	360	-472.4997	228.7073	473.8877	-208.5288;
	7595	11501	0.00236	0.01418	0	0	0	0	1	0	1	-360	360	137.8795	-74.0516	-137.2999	77.5341;
	7595	11390	0.002169	0.015909	0	0	0	0	1	0	1	-360	360	-137.8795	76.8841	138.4215	-72.9087;
	6873	1806	0.00027	0.00254	0	0	0	0	1	0	1	-360	360	-49.8840	64.3410	49.9012	-64.1791;
	6873	11151	0.00027	0.00259	0	0	0	0	1	0	1	-360	360	49.8840	-55.3225	-49.8696	55.4607;
	11949	1806	0.00033	0.00302	0	0	0	0	1	0	1	-360	360	343.7304	-75.4193	-343.3354	79.0334;
	11949	1269	0.00029	0.00312	0	0	0	0	1	0	1	-360	360	-343.7304	85.2395	344.0818	-81.4581;
	2623	3359	0.000289	0.00137	0	0	0	0	1	0	1	-360	360	-2.9803	9.4790	2.9806	-9.4777;
	2623	11159	0.000219	0.00263	0	0	0	0	1	0	1	-360	360	2.9803	16.1165	-2.9797	-16.1096;
	3020	3359	0.000289	0.001341	0	0	0	0	1	0	1	-360	360	26.0600	41.7715	-26.0531	-41.7395;
	3020	12995	0.000229	0.00257	0	0	0	0	1	0	1	-360	360	-26.0600	-15.6420	26.0621	15.6654;
	9670	3359	0.000841	0.00689	0	0	0	0	1	0	1	-360	360	53.5517	22.7374	-53.5238	-22.5084;
	9670	2360	0.000979	0.00586	0	0	0	0	1	0	1	-360	360	-53.5517	-21.6779	53.5838	21.8700;
	8390	3359	0.00014	0.0012	0	0	0	0	1	0	1	-360	360	7.2541	-12.7220	-7.2538	12.7245;
	8390	11515	0.000211	0.001539	0	0	0	0	1	0	1	-360	360	-7.2541	13.0871	7.2545	-13.0837;
	12630	3359	0.000401	0.004901	0	0	0	0	1	0	1	-360	360	3.2714	-5.2311	-3.2712	5.2330;
	12630	11515	0.000219	0.00151	0	0	0	0	1	0	1	-360	360	-3.2714	6.1236	3.2715	-6.1229;
	3340	3359	0.000729	0.004539	0	0	0	0	1	0	1	-360	360	-90.4513	-13.0761	90.5115	13.4507;
	3340	3953	0.00062	0.00482	0	0	0	0	1	0	1	-360	360	90.4513	13.8454	-90.4000	-13.4466;
	7444	8848	0.00052	0.00407	0	0	0	0	1	0	1	-360	360	-54.2243	218.0871	54.4982	-215.9440;
	7444	5026	0.00034	0.00502	0	0	0	0	1	0	1	-360	360	54.2243	-207.0100	-54.0620	209.4069;
	11055	8848	0.00065	0.00698	0	0	0	0	1	0	1	-360	360	348.9933	121.6897	-348.0711	-111.7862;
	11055	13067	0.00059	0.00806	0	0	0	0	1	0	1	-360	360	-348.9933	-101.9140	349.8033	112.9797;
	9857	13125	0.00063	0.00464	0	0	0	0	1	0	1	-360	360	-40.6812	19.6919	40.6947	-19.5925;
	9857	12598	0.000599	0.005099	0	0	0	0	1	0	1	-360	360	40.6812	-18.4706	-40.6687	18.5773;
	7256	7011	0.00064	0.00307	0	0	0	0	1	0	1	-360	360	-134.5273	4.8611	134.6411	-4.3155;
	7256	11232	0.000659	0.003	0	0	0	0	1	0	1	-360	360	134.5273	-3.8517	-134.4103	4.3846;
	12732	9895	0.00053	0.00528	0	0	0	0	1	0	1	-360	360	-79.9578	-93.2807	80.0376	94.0760;
	12732	4416	0.00056	0.0053	0	0	0	0	1	0	1	-360	360	79.9578	106.6101	-79.8586	-105.6709;
	4494	7011	0.0018	0.007919	0	0	0	0	1	0	1	-360	360	-110.3127	-7.7939	110.5294	8.7474;
	4494	10481	0.001651	0.00862	0	0	0	0	1	0	1	-360	360	110.3127	10.4856	-110.1131	-9.4436;
	7913	9895	0.00045	0.00545	0	0	0	0	1	0	1	-360	360	281.1516	70.4233	-280.7820	-65.9476;
	7913	1269	0.00052	0.00476	0	0	0	0	1	0	1	-360	360	-281.1516	-58.5678	281.5708	62.4058;
	3258	10043	0.01286	0.037421	0	0	0	0	1	0	1	-360	360	-0.7859	3.2360	0.7874	-3.2315;
	3258	8238	0.032397	0.123	0	0	0	0	1	0	1	-360	360	0.7859	-2.5418	-0.7834	2.5512;
	697	10043	0.032851	0.069727	0	0	0	0	1	0	1	-360	360	-7.1477	0.6691	7.1661	-0.6300;
	697	11841	0.059942	0.112802	0	0	0	0	1	0	1	-360	360	7.1477	0.2229	-7.1144	-0.1602;
	11629	10942	0.00011	0.00109	0	0	0	0	1	0	1	-360	360	-89.6263	-136.6101	89.6544	136.8890;
	11629	13171	0.00011	0.00107	0	0	0	0	1	0	1	-360	360	89.6263	139.4685	-89.5973	-139.1866;
	9089	11260	0.000461	0.00395	0	0	0	0	1	0	1	-360	360	232.7298	-18.9024	-232.4869	20.9840;
	9089	7609	0.000599	0.003789	0	0	0	0	1	0	1	-360	360	-232.7298	19.7300	233.0457	-17.7321;
	13119	3581	0.00173	0.01542	0	0	0	0	1	0	1	-360	360	-39.3276	72.7798	39.4352	-71.8211;
	13119	6381	0.00166	0.02083	0	0	0	0	1	0	1	-360	360	39.3276	-28.9375	-39.2917	29.3886;
	5075	13106	0.006314	0.018488	0	0	0	0	1	0	1	-360	360	8.5128	-2.8827	-8.5076	2.8979;
	5075	9503	0.015727	0.037669	0	0	0	0	1	0	1	-360	360	-8.5128	3.1482	8.5260	-3.1167;
	11048	10312	0.00374	0.02095	0	0	0	0	1	0	1	-360	360	268.8173	-33.4920	-266.2693	47.7650;
	11048	3185	0.00511	0.019461	0	0	0	0	1	0	1	-360	360	-268.8173	36.8311	272.3099	-23.5301;
	1538	4109	0.011281	0.050771	0	0	0	0	1	0	1	-360	360	155.6652	-32.6056	-152.8557	45.2499;
	1538	3721	0.0115	0.049719	0	0	0	0	1	0	1	-360	360	-155.6652	41.4622	158.6035	-28.7588;
	5803	4109	0.011719	0.048659	0	0	0	0	1	0	1	-360	360	161.0953	-36.8077	-157.9444	49.8907;
	5803	3721	0.01193	0.047599	0	0	0	0	1	0	1	-360	360	-161.0953	45.9988	164.3924	-32.8441;
	189	4268	0.00064	0.00715	0	0	0	0	1	0	1	-360	360	-238.2309	14.5664	238.5772	-10.6975;
	189	11488	0.00089	0.00712	0	0	0	0	1	0	1	-360	360	238.2309	7.9526	-237.7506	-4.1100;
	7384	1009	0.00048	0.00555	0	0	0	0	1	0	1	-360	360	-26.6207	-15.1844	26.6251	15.2346;
	7384	11547	0.00047	0.00566	0	0	0	0	1	0	1	-360	360	26.6207	27.6513	-26.6141	-27.5710;
	11070	1009	0.00046	0.00524	0	0	0	0	1	0	1	-360	360	-28.9999	-16.5197	29.0048	16.5759;
	11070	11547	0.00052	0.00514	0	0	0	0	1	0	1	-360	360	28.9999	29.3908	-28.9913	-29.3064;
	2061	6603	0.00438	0.010686	0	0	0	0	1	0	1	-360	360	-40.6802	-6.6209	40.7630	6.8230;
	2061	9733	0.031347	0.062653	0	0	0	0	1	0	1	-360	360	40.6802	6.9533	-40.0858	-5.7653;
	9502	7241	0.00029	0.00298	0	0	0	0	1	0	1	-360	360	-506.6619	-56.3298	507.3959	63.8717;
	9502	8865	0.0003	0.00291	0	0	0	0	1	0	1	-360	360	506.6619	64.7500	-505.8997	-57.3563;
	12336	13321	0.00155	0.01529	0	0	0	0	1	0	1	-360	360	-116.0042	90.9509	116.3114	-87.9201;
	12336	494	0.00148	0.0152	0	0	0	0	1	0	1	-360	360	116.0042	-44.5592	-115.7957	46.7005;
	13540	11971	0.000169	0.00096	0	0	0	0	1	0	1	-360	360	-85.4082	12.2873	85.4209	-12.2151;
	13540	330	0.000182	0.000942	0	0	0	0	1	0	1	-360	360	85.4082	-11.7427	-85.3946	11.8134;
	8250	622	0.00016	0.00184	0	0	0	0	1	0	1	-360	360	-878.4829	155.7717	879.6560	-142.2805;
	8250	8646	0.00022	0.00287	0	0	0	0	1	0	1	-360	360	878.4829	-148.6826	-876.8742	169.6689;
	5656	9506	0.00015	0.00187	0	0	0	0	1	0	1	-360	360	-882.5057	179.1218	883.6246	-165.1728;
	5656	7003	0.00022	0.00266	0	0	0	0	1	0	1	-360	360	882.5057	-172.1753	-880.8696	191.9574;
	8767	13151	0.00138	0.0174	0	0	0	0	1	0	1	-360	360	-32.8471	37.5052	32.8784	-37.1114;
	8767	256	0.00272	0.0288	0	0	0	0	1	0	1	-360	360	32.8471	34.7729	-32.7904	-34.1728;
	11952	7565	0.00065	0.01024	0	0	0	0	1	0	1	-360	360	910.2858	42.9072	-905.2089	37.0736;
	11952	8750	0.00073	0.01004	0	0	0	0	1	0	1	-360	360	-910.2858	-17.4850	915.9770	95.7586;
	13220	7565	0.00075	0.00983	0	0	0	0	1	0	1	-360	360	948.6197	36.3547	-942.2672	46.9053;
	13220	8750	0.00076	0.00963	0	0	0	0	1	0	1	-360	360	-948.6197	-8.5313	955.0479	89.9843;
	10465	10831	0.00042	0.02666	0	0	0	0	1	0	1	-360	360	0.0000	0.0000	0.0000	0.0000;
	8079	10358	0.00029	0.0026	0	0	0	0	1	0	1	-360	360	553.6003	77.7787	-552.7271	-69.9504;
	8079	8404	0.00022	0.00303	0	0	0	0	1	0	1	-360	360	-553.6003	-66.9526	554.2594	76.0298;
	7197	5524	0.001	0.006159	0	0	0	0	1	0	1	-360	360	189.5289	66.1591	-189.1210	-63.6467;
	7197	11931	0.00113	0.00657	0	0	0	0	1	0	1	-360	360	-189.5289	-64.8057	189.9879	67.4740;
	1721	12153	0.0013	0.01277	0	0	0	0	1	0	1	-360	360	228.6402	72.8632	-227.9867	-66.4434;
	1721	10744	0.00163	0.01808	0	0	0	0	1	0	1	-360	360	-228.6402	-32.5657	229.3992	40.9844;
	8400	850	0.00047	0.00406	0	0	0	0	1	0	1	-360	360	225.5746	85.3461	-225.3419	-83.3359;
	8400	8575	0.00235	0.02343	0	0	0	0	1	0	1	-360	360	-225.5746	-47.4234	226.6374	58.0201;
	9020	2201	0.00036	0.00445	0	0	0	0	1	0	1	-360	360	466.0398	110.9633	-465.2481	-101.1760;
	9020	2350	0.00017	0.0025	0	0	0	0	1	0	1	-360	360	-466.0398	-101.1752	466.4104	106.6240;
	6435	2201	0.00036	0.00436	0	0	0	0	1	0	1	-360	360	134.1842	104.3342	-134.0842	-103.1238;
	6435	3448	0.00017	0.00255	0	0	0	0	1	0	1	-360	360	-134.1842	-94.3745	134.2281	95.0339;
	3223	4642	0.00096	0.00995	0	0	0	0	1	0	1	-360	360	274.0186	28.3142	-273.3336	-21.2137;
	3223	9919	0.00152	0.01949	0	0	0	0	1	0	1	-360	360	-274.0186	3.4608	275.0920	10.3029;
	7755	4642	0.00094	0.01014	0	0	0	0	1	0	1	-360	360	268.9397	28.6032	-268.2931	-21.6282;
	7755	9919	0.00149	0.01986	0	0	0	0	1	0	1	-360	360	-268.9397	2.5008	269.9533	11.0086;
	4129	4642	0.00107	0.01243	0	0	0	0	1	0	1	-360	360	138.6631	-4.7852	-138.4678	7.0538;
	4129	3715	0.00102	0.01034	0	0	0	0	1	0	1	-360	360	-138.6631	30.8687	138.8582	-28.8904;
	5471	7106	0.0047	0.02061	0	0	0	0	1	0	1	-360	360	-114.8016	-44.4795	115.4822	47.4638;
	5471	5434	0.00739	0.040531	0	0	0	0	1	0	1	-360	360	114.8016	49.3681	-113.6992	-43.3216;
	8834	12770	0.00049	0.00611	0	0	0	0	1	0	1	-360	360	-219.5450	-152.2638	219.8409	155.9532;
	8834	10744	0.00035	0.00431	0	0	0	0	1	0	1	-360	360	219.5450	168.8501	-219.3179	-166.0535;
	7831	1467	0.00261	0.01344	0	0	0	0	1	0	1	-360	360	-21.0538	-12.1029	21.0687	12.1797;
	7831	5173	0.003521	0.019591	0	0	0	0	1	0	1	-360	360	21.0538	15.1586	-21.0309	-15.0309;
	10033	5005	0.0025	0.01419	0	0	0	0	1	0	1	-360	360	-5.4903	-9.4559	5.4932	9.4723;
	10033	7387	0.00287	0.0237	0	0	0	0	1	0	1	-360	360	5.4903	13.2498	-5.4846	-13.2026;
	9789	9848	0.00088	0.00956	0	0	0	0	1	0	1	-360	360	575.6334	-119.2972	-572.8195	149.8663;
	9789	430	0.00095	0.00877	0	0	0	0	1	0	1	-360	360	-575.6334	142.0257	578.7233	-113.5007;
	2916	1094	0.00332	0.020651	0	0	0	0	1	0	1	-360	360	-96.2782	18.2630	96.5896	-16.3264;
	2916	2869	0.003969	0.018781	0	0	0	0	1	0	1	-360	360	96.2782	-15.2013	-95.9100	16.9438;
	4142	3925	0.002849	0.014909	0	0	0	0	1	0	1	-360	360	-4.7204	9.4622	4.7237	-9.4449;
	4142	2245	0.00439	0.02451	0	0	0	0	1	0	1	-360	360	4.7204	-6.7448	-4.7173	6.7621;
	123	12854	0.0002	0.0018	0	0	0	0	1	0	1	-360	360	-743.2001	-36.3208	744.2922	46.1500;
	123	12369	0.00025	0.00261	0	0	0	0	1	0	1	-360	360	743.2001	43.6413	-741.8335	-29.3740;
	10806	12854	0.0002	0.00176	0	0	0	0	1	0	1	-360	360	-750.1532	-34.7411	751.2655	44.5295;
	10806	1112	0.00025	0.00255	0	0	0	0	1	0	1	-360	360	750.1532	42.1938	-748.7614	-27.9973;
	12593	9027	0.012488	0.047413	0	0	0	0	1	0	1	-360	360	-28.1604	-1.6294	28.2666	2.0328;
	12593	455	0.010479	0.027711	0	0	0	0	1	0	1	-360	360	28.1604	1.9194	-28.0711	-1.6833;
	3745	10922	0.00044	0.00428	0	0	0	0	1	0	1	-360	360	1048.0077	-65.2759	-1043.4789	109.3290;
	3745	1898	0.00036	0.00475	0	0	0	0	1	0	1	-360	360	-1048.0077	77.6377	1051.7190	-28.6686;
	6938	7640	0.00058	0.00534	0	0	0	0	1	0	1	-360	360	891.0718	-214.3209	-886.3246	258.0283;
	6938	4543	0.00054	0.00589	0	0	0	0	1	0	1	-360	360	-891.0718	228.2671	895.5242	-179.7038;
	4229	2024	0.00206	0.02057	0	0	0	0	1	0	1	-360	360	77.0864	19.1032	-76.9631	-17.8723;
	4229	9388	0.00077	0.00872	0	0	0	0	1	0	1	-360	360	-77.0864	18.7681	77.1324	-18.2474;
	5543	13575	0.00161	0.01963	0	0	0	0	1	0	1	-360	360	-374.0189	16.4434	376.1492	9.5301;
	5543	9388	0.00075	0.00888	0	0	0	0	1	0	1	-360	360	374.0189	15.4307	-373.0267	-3.6838;
	2764	10638	0.00016	0.00152	0	0	0	0	1	0	1	-360	360	-771.4233	108.9670	772.3581	-100.0866;
	2764	10338	0.00019	0.00163	0	0	0	0	1	0	1	-360	360	771.4233	-104.0217	-770.3152	113.5282;
	7963	10638	0.00015	0.0016	0	0	0	0	1	0	1	-360	360	-712.0980	83.4713	712.8404	-75.5522;
	7963	10338	0.00015	0.00183	0	0	0	0	1	0	1	-360	360	712.0980	-78.8806	-711.3567	87.9248;
	5383	4802	0.00121	0.01426	0	0	0	0	1	0	1	-360	360	-421.4465	-173.4724	423.9225	202.6533;
	5383	8035	0.00116	0.01456	0	0	0	0	1	0	1	-360	360	421.4465	232.2122	-418.8004	-198.9993;
	663	204	0.00068	0.00727	0	0	0	0	1	0	1	-360	360	937.2892	-41.2069	-931.4411	103.7293;
	663	6973	0.0007	0.00734	0	0	0	0	1	0	1	-360	360	-937.2892	64.4504	943.3260	-1.1499;
	11598	204	0.00076	0.00712	0	0	0	0	1	0	1	-360	360	954.6410	-54.4774	-947.8517	118.0817;
	11598	6973	0.0008	0.00719	0	0	0	0	1	0	1	-360	360	-954.6410	80.8119	961.8154	-16.3320;
	2983	2257	0.0002	0.0022	0	0	0	0	1	0	1	-360	360	-21.4375	-103.6913	21.4591	103.9289;
	2983	10869	0.0002	0.0022	0	0	0	0	1	0	1	-360	360	21.4375	110.1486	-21.4132	-109.8818;
	411	4997	0.000205	0.00215	0	0	0	0	1	0	1	-360	360	35.6620	-103.8759	-35.6381	104.1258;
	411	10869	0.000205	0.00215	0	0	0	0	1	0	1	-360	360	-35.6620	110.4557	35.6886	-110.1766;
	8649	12423	0.00053	0.00589	0	0	0	0	1	0	1	-360	360	-203.9749	13.8649	204.1847	-11.5336;
	8649	1165	0.00046	0.00675	0	0	0	0	1	0	1	-360	360	203.9749	2.1238	-203.7937	0.5358;
	13485	12423	0.00054	0.00577	0	0	0	0	1	0	1	-360	360	-214.3974	14.8527	214.6336	-12.3290;
	13485	1165	0.00045	0.00625	0	0	0	0	1	0	1	-360	360	214.3974	1.1453	-214.2015	1.5754;
	2363	2209	0.00275	0.02752	0	0	0	0	1	0	1	-360	360	-87.1000	-24.5175	87.3087	26.6058;
	2363	11249	0.00184	0.01515	0	0	0	0	1	0	1	-360	360	87.1000	73.2756	-86.8791	-71.4564;
	3314	10019	0.00438	0.02432	0	0	0	0	1	0	1	-360	360	-11.0356	-9.4946	11.0450	9.5468;
	3314	879	0.0043	0.01949	0	0	0	0	1	0	1	-360	360	11.0356	12.7546	-11.0232	-12.6985;
	12347	10227	0.00033	0.00269	0	0	0	0	1	0	1	-360	360	187.3972	50.2550	-187.2807	-49.3059;
	12347	2517	0.00243	0.01904	0	0	0	0	1	0	1	-360	360	-187.3972	-14.3965	188.2017	20.7006;
	1326	10227	0.00034	0.00263	0	0	0	0	1	0	1	-360	360	191.4214	50.2112	-191.2966	-49.2458;
	1326	2517	0.00248	0.01864	0	0	0	0	1	0	1	-360	360	-191.4214	-13.6591	192.2775	20.0935;
	9864	13169	0.00122	0.01249	0	0	0	0	1	0	1	-360	360	-447.6592	60.5166	450.0689	-35.8473;
	9864	5959	0.00106	0.01031	0	0	0	0	1	0	1	-360	360	447.6592	-24.9348	-445.5968	44.9949;
	4830	13169	0.00119	0.01273	0	0	0	0	1	0	1	-360	360	-447.4326	60.3753	449.7796	-35.2691;
	4830	5959	0.00108	0.01009	0	0	0	0	1	0	1	-360	360	447.4326	-24.7274	-445.3343	44.3308;
	12318	6464	0.001039	0.013711	0	0	0	0	1	0	1	-360	360	48.4906	78.6481	-48.4004	-77.4569;
	12318	7516	0.00114	0.011409	0	0	0	0	1	0	1	-360	360	-48.4906	-74.7471	48.5827	75.6688;
	11537	8566	0.001021	0.013969	0	0	0	0	1	0	1	-360	360	6.1535	67.5379	-6.1059	-66.8867;
	11537	7516	0.001169	0.011159	0	0	0	0	1	0	1	-360	360	-6.1535	-63.6117	6.2019	64.0737;
	13343	12066	0	0.000271	0	0	0	0	1	0	1	-360	360	0.0000	0.0000	0.0000	0.0000;
	3313	12066	0	0.000271	0	0	0	0	1	0	1	-360	360	0.0000	0.0000	0.0000	0.0000;
	1196	218	0.009372	0.035702	0	0	0	0	1	0	1	-360	360	13.7616	4.3813	-13.7410	-4.3027;
	1196	3002	0.029157	0.103686	0	0	0	0	1	0	1	-360	360	-13.7616	-3.7747	13.8243	3.9974;
	780	8041	0.00065	0.00673	0	0	0	0	1	0	1	-360	360	-26.9637	-213.5592	27.2643	216.6714;
	780	6114	0.00066	0.00658	0	0	0	0	1	0	1	-360	360	26.9637	241.7745	-26.5739	-237.8880;
	5179	3568	0.000969	0.006021	0	0	0	0	1	0	1	-360	360	-76.5787	-37.5523	76.6492	37.9901;
	5179	3085	0.00099	0.005901	0	0	0	0	1	0	1	-360	360	76.5787	40.0231	-76.5048	-39.5827;
	1666	7897	0.00088	0.006599	0	0	0	0	1	0	1	-360	360	-16.7681	-44.7163	16.7883	44.8675;
	1666	6301	0.00086	0.006729	0	0	0	0	1	0	1	-360	360	16.7681	46.9268	-16.7466	-46.7590;
	12861	4782	9e-05	0.00077	0	0	0	0	1	0	1	-360	360	377.7540	-170.0190	-377.6055	171.2893;
	12861	6207	9e-05	0.00078	0	0	0	0	1	0	1	-360	360	-377.7540	172.9421	377.9033	-171.6478;
	7212	4782	8e-05	0.00082	0	0	0	0	1	0	1	-360	360	116.1353	8.9155	-116.1249	-8.8087;
	7212	11151	8e-05	0.00076	0	0	0	0	1	0	1	-360	360	-116.1353	-6.2362	116.1457	6.3348;
	9869	8041	9e-05	0.00074	0	0	0	0	1	0	1	-360	360	292.9204	202.0491	-292.8103	-201.1436;
	9869	6207	9e-05	0.00073	0	0	0	0	1	0	1	-360	360	-292.9204	-199.0069	293.0295	199.8916;
	6015	3568	0.00062	0.003781	0	0	0	0	1	0	1	-360	360	-9.6942	36.5701	9.7030	-36.5165;
	6015	1131	0.000599	0.0035	0	0	0	0	1	0	1	-360	360	9.6942	-35.6822	-9.6861	35.7296;
	10035	7897	0.00064	0.00274	0	0	0	0	1	0	1	-360	360	175.3956	35.3420	-175.1920	-34.4701;
	10035	1910	0.000651	0.00268	0	0	0	0	1	0	1	-360	360	-175.3956	-34.4767	175.6024	35.3279;
	9951	1939	0.00055	0.00685	0	0	0	0	1	0	1	-360	360	-680.0322	39.1401	682.5611	-7.6439;
	9951	557	0.00061	0.00639	0	0	0	0	1	0	1	-360	360	680.0322	-23.9433	-677.2332	53.2638;
	8771	8041	0.00042	0.00523	0	0	0	0	1	0	1	-360	360	261.9534	-49.6729	-261.6630	53.2892;
	8771	12272	0.00045	0.00605	0	0	0	0	1	0	1	-360	360	-261.9534	60.4884	262.2698	-56.2350;
	8284	4782	0.0003	0.00228	0	0	0	0	1	0	1	-360	360	-103.9309	-6.6685	103.9622	6.9060;
	8284	13171	0.00026	0.00264	0	0	0	0	1	0	1	-360	360	103.9309	13.0514	-103.9035	-12.7732;
	4891	7738	0.00536	0.03568	0	0	0	0	1	0	1	-360	360	183.1407	0.6002	-181.3649	11.2207;
...
];

%%-----  OPF Data  -----%%
%% generator cost data
%	1	startup	shutdown	n	x1	y1	...	xn	yn
%	2	startup	shutdown	n	c(n-1)	...	c0
mpc.gencost = [
	2	0	0	3	0	1	0;
	2	0	0	3	0	1	0;
	2	0	0	3	0	1	0;
	2	0	0	3	0	1	0;
	2	0	0	3	0	1	0;
	2	0	0	3	0	1	0;
	2	0	0	3	0	1	0;
	2	0	0	3	0	1	0;
	2	0	0	3	0	1	0;
	2	0	0	3	0	1	0;
	2	0	0	3	0	1	0;
	2	0	0	3	0	1	0;
	2	0	0	3	0	1	0;
	2	0	0	3	0	1	0;
	2	0	0	3	0	1	0;
	2	0	0	3	0	1	0;
	2	0	0	3	0	1	0;
	2	0	0	3	0	1	0;
	2	0	0	3	0	1	0;
	2	0	0	3	0	1	0;
	2	0	0	3	0	1	0;
	2	0	0	3	0	1	0;
	2	0	0	3	0	1	0;
	2	0	0	3	0	1	0;
	2	0	0	3	0	1	0;
	2	0	0	3	0	1	0;
	2	0	0	3	0	1	0;
	2	0	0	3	0	1	0;
	2	0	0	3	0	1	0;
	2	0	0	3	0	1	0;
	2	0	0	3	0	1	0;
	2	0	0	3	0	1	0;
	2	0	0	3	0	1	0;
	2	0	0	3	0	1	0;
	2	0	0	3	0	1	0;
	2	0	0	3	0	1	0;
	2	0	0	3	0	1	0;
	2	0	0	3	0	1	0;
	2	0	0	3	0	1	0;
	2	0	0	3	0	1	0;
	2	0	0	3	0	1	0;
	2	0	0	3	0	1	0;
	2	0	0	3	0	1	0;
	2	0	0	3	0	1	0;
	2	0	0	3	0	1	0;
	2	0	0	3	0	1	0;
	2	0	0	3	0	1	0;
	2	0	0	3	0	1	0;
	2	0	0	3	0	1	0;
	2	0	0	3	0	1	0;
	2	0	0	3	0	1	0;
	2	0	0	3	0	1	0;
	2	0	0	3	0	1	0;
	2	0	0	3	0	1	0;
	2	0	0	3	0	1	0;
	2	0	0	3	0	1	0;
	2	0	0	3	0	1	0;
	2	0	0	3	0	1	0;
	2	0	0	3	0	1	0;
	2	0	0	3	0	1	0;
	2	0	0	3	0	1	0;
	2	0	0	3	0	1	0;
	2	0	0	3	0	1	0;
	2	0	0	3	0	1	0;
	2	0	0	3	0	1	0;
	2	0	0	3	0	1	0;
	2	0	0	3	0	1	0;
	2	0	0	3	0	1	0;
	2	0	0	3	0	1	0;
	2	0	0	3	0	1	0;
	2	0	0	3	0	1	0;
	2	0	0	3	0	1	0;
	2	0	0	3	0	1	0;
	2	0	0	3	0	1	0;
	2	0	0	3	0	1	0;
	2	0	0	3	0	1	0;
	2	0	0	3	0	1	0;
	2	0	0	3	0	1	0;
	2	0	0	3	0	1	0;
	2	0	0	3	0	1	0;
	2	0	0	3	0	1	0;
	2	0	0	3	0	1	0;
	2	0	0	3	0	1	0;
	2	0	0	3	0	1	0;
	2	0	0	3	0	1	0;
	2	0	0	3	0	1	0;
	2	0	0	3	0	1	0;
	2	0	0	3	0	1	0;
	2	0	0	3	0	1	0;
	2	0	0	3	0	1	0;
	2	0	0	3	0	1	0;
	2	0	0	3	0	1	0;
	2	0	0	3	0	1	0;
	2	0	0	3	0	1	0;
	2	0	0	3	0	1	0;
	2	0	0	3	0	1	0;
	2	0	0	3	0	1	0;
	2	0	0	3	0	1	0;
	2	0	0	3	0	1	0;
	2	0	0	3	0	1	0;
	2	0	0	3	0	1	0;
	2	0	0	3	0	1	0;
	2	0	0	3	0	1	0;
	2	0	0	3	0	1	0;
	2	0	0	3	0	1	0;
	2	0	0	3	0	1	0;
	2	0	0	3	0	1	0;
	2	0	0	3	0	1	0;
	2	0	0	3	0	1	0;
	2	0	0	3	0	1	0;
	2	0	0	3	0	1	0;
	2	0	0	3	0	1	0;
	2	0	0	3	0	1	0;
	2	0	0	3	0	1	0;
	2	0	0	3	0	1	0;
	2	0	0	3	0	1	0;
	2	0	0	3	0	1	0;
	2	0	0	3	0	1	0;
	2	0	0	3	0	1	0;
	2	0	0	3	0	1	0;
	2	0	0	3	0	1	0;
	2	0	0	3	0	1	0;
	2	0	0	3	0	1	0;
	2	0	0	3	0	1	0;
	2	0	0	3	0	1	0;
	2	0	0	3	0	1	0;
	2	0	0	3	0	1	0;
	2	0	0	3	0	1	0;
	2	0	0	3	0	1	0;
	2	0	0	3	0	1	0;
	2	0	0	3	0	1	0;
	2	0	0	3	0	1	0;
	2	0	0	3	0	1	0;
	2	0	0	3	0	1	0;
	2	0	0	3	0	1	0;
	2	0	0	3	0	1	0;
	2	0	0	3	0	1	0;
	2	0	0	3	0	1	0;
	2	0	0	3	0	1	0;
	2	0	0	3	0	1	0;
	2	0	0	3	0	1	0;
	2	0	0	3	0	1	0;
	2	0	0	3	0	1	0;
	2	0	0	3	0	1	0;
	2	0	0	3	0	1	0;
	2	0	0	3	0	1	0;
	2	0	0	3	0	1	0;
	2	0	0	3	0	1	0;
	2	0	0	3	0	1	0;
	2	0	0	3	0	1	0;
	2	0	0	3	0	1	0;
	2	0	0	3	0	1	0;
	2	0	0	3	0	1	0;
	2	0	0	3	0	1	0;
	2	0	0	3	0	1	0;
	2	0	0	3	0	1	0;
	2	0	0	3	0	1	0;
	2	0	0	3	0	1	0;
	2	0	0	3	0	1	0;
	2	0	0	3	0	1	0;
	2	0	0	3	0	1	0;
	2	0	0	3	0	1	0;
	2	0	0	3	0	1	0;
	2	0	0	3	0	1	0;
	2	0	0	3	0	1	0;
	2	0	0	3	0	1	0;
	2	0	0	3	0	1	0;
	2	0	0	3	0	1	0;
	2	0	0	3	0	1	0;
	2	0	0	3	0	1	0;
	2	0	0	3	0	1	0;
	2	0	0	3	0	1	0;
	2	0	0	3	0	1	0;
	2	0	0	3	0	1	0;
	2	0	0	3	0	1	0;
	2	0	0	3	0	1	0;
	2	0	0	3	0	1	0;
	2	0	0	3	0	1	0;
	2	0	0	3	0	1	0;
	2	0	0	3	0	1	0;
	2	0	0	3	0	1	0;
	2	0	0	3	0	1	0;
	2	0	0	3	0	1	0;
	2	0	0	3	0	1	0;
	2	0	0	3	0	1	0;
	2	0	0	3	0	1	0;
	2	0	0	3	0	1	0;
	2	0	0	3	0	1	0;
	2	0	0	3	0	1	0;
	2	0	0	3	0	1	0;
	2	0	0	3	0	1	0;
	2	0	0	3	0	1	0;
	2	0	0	3	0	1	0;
	2	0	0	3	0	1	0;
	2	0	0	3	0	1	0;
	2	0	0	3	0	1	0;
	2	0	0	3	0	1	0;
	2	0	0	3	0	1	0;
	2	0	0	3	0	1	0;
	2	0	0	3	0	1	0;
...
];
